finish  ! Stops all modules (preprocessor, solution, postprocessor)
/clear	! Start a new analysis, delete the old database (file.db)
/prep7  
nblock,3,,782	! Create nodes
(1i9,3e20.9e3)
        1     1.148495905E-02     8.000000000E-02    -9.357487649E-03
        2     1.148495905E-02     6.000000000E-02    -9.357487649E-03
        3     1.148495905E-02     4.000000000E-02    -9.357487649E-03
        4     1.148495905E-02     2.000000000E-02    -9.357487649E-03
        5    -9.858927474E-03     8.000000000E-02     3.863637532E-03
        6    -9.858927474E-03     6.000000000E-02     3.863637532E-03
        7    -9.858927474E-03     4.000000000E-02     3.863637532E-03
        8    -9.858927474E-03     2.000000000E-02     3.863637532E-03
        9     2.337457566E-03     8.000000000E-02     3.519695048E-03
       10     2.337457566E-03     6.000000000E-02     3.519695048E-03
       11     2.337457566E-03     4.000000000E-02     3.519695048E-03
       12     2.337457566E-03     2.000000000E-02     3.519695048E-03
       13    -1.043054959E-02     8.000000000E-02    -1.308938996E-02
       14    -1.043054959E-02     6.000000000E-02    -1.308938996E-02
       15    -1.043054959E-02     4.000000000E-02    -1.308938996E-02
       16    -1.043054959E-02     2.000000000E-02    -1.308938996E-02
       17     1.438611877E-02     8.000000000E-02     1.117415794E-03
       18     1.438611877E-02     6.000000000E-02     1.117415794E-03
       19     1.438611877E-02     4.000000000E-02     1.117415794E-03
       20     1.438611877E-02     2.000000000E-02     1.117415794E-03
! ... 692 like lines cut
et,1,186
keyo,1,2,1          ! set full integration on SOLID186
eblock,19,solid,,130	! Create elements
(19i9)
        1        1        1        1        0        0        0        0       20        0        1        1       17       41       45      100       96       90       89
      200      273      358      201      521      507      503      504      203      274      359      372
        1        1        1        1        0        0        0        0       20        0        2        1       45       41       17        2       46       42       18
      201      358      273      200      206      362      277      205      199      370      357      271
        1        1        1        1        0        0        0        0       20        0        3        2       46       42       18        3       47       43       19
      206      362      277      205      210      365      280      209      204      374      361      275
        1        1        1        1        0        0        0        0       20        0        4        3       47       43       19        4       48       44       20
      210      365      280      209      213      367      282      212      208      377      364      278
        1        1        1        1        0        0        0        0       20        0        5        4       48       44       20      101      112      111      105
      213      367      282      212      525      551      538      524      215      381      368      283
        1        1        1        1        0        0        0        0       20        0        6        1       45       49       77      100       89       88       81
      201      371      385      202      504      501      479      482      203      372      386      475
        1        1        1        1        0        0        0        0       20        0        7        1       77       49       45        2       78       50       46
      202      385      371      201      207      390      375      206      199      474      383      370
        1        1        1        1        0        0        0        0       20        0        8        2       78       50       46        3       79       51       47
      207      390      375      206      211      394      378      210      204      476      388      374
        1        1        1        1        0        0        0        0       20        0        9        3       79       51       47        4       80       52       48
      211      394      378      210      214      397      380      213      208      477      392      377
        1        1        1        1        0        0        0        0       20        0       10        4       80       52       48      101      120      113      112
      214      397      380      213      526      556      553      525      215      478      398      381
! ... 241 like lines cut
csys,0
MP,EX,1,200000,
MP,NUXY,1,0.3,
CMBLOCK,_FRICSUX,NODE,      221
(8i10)
       121       122       123       124       125       126       127       128
       129       130       131       132       133       134       135       136
       137       138       139       140       141       142       143       144
       145       146       147       148       149       150       151       152
       153       154       155       156       157       158       159       160
       161       162       163       164       165       166       167       168
       169       170       171       172       173       174       175       176
       177       178       179       180       181       182       183       184
       185       186       187       188       189       190       191       192
       193       194       195       196       197       198       569       570
       571       572       573       574       575       576       577       578
       579       580       581       582       583       584       585       586
       587       588       589       590       591       592       593       594
       595       596       597       598       599       600       601       602
       603       604       605       606       607       608       609       610
       611       612       613       614       615       616       617       618
       619       620       621       622       623       624       625       626
       627       628       629       630       631       632       633       634
       635       636       637       638       639       640       641       642
       643       644       645       646       647       648       649       650
! ... 8 like lines cut
cmsel,s,_FRICSUX
d,all,ux,0
nsel,all
/com,********* Frictionless Supports Y *********
CMBLOCK,_FRICSUY,NODE,      106
(8i10)
       101       102       103       104       105       106       107       108
       109       110       111       112       113       114       115       116
       117       118       119       120       121       122       123       124
       125       126       127       128       129       130       131       132
       133       183       184       185       186       187       524       525
       526       527       528       529       530       531       532       533
       534       535       536       537       538       539       540       541
       542       543       544       545       546       547       548       549
       550       551       552       553       554       555       556       557
       558       559       560       561       562       563       564       565
       566       567       568       569       570       572       574       576
       578       580       582       584       586       588       590       592
       593       611       643       668       688       697       699       700
       701       707
cmsel,s,_FRICSUY
d,all,uy,0
nsel,all
CMBLOCK,_FRICSUZ,NODE,      206
(8i10)
       121       122       123       124       125       126       127       128
       129       130       131       132       133       134       135       136
       137       138       139       140       141       142       143       144
       145       146       147       148       149       150       151       152
       153       154       155       156       157       158       159       160
       161       162       163       164       165       166       167       168
       169       170       171       172       173       174       175       176
       177       178       179       180       181       182       188       189
       190       191       192       193       194       195       196       197
       198       569       570       571       572       573       574       575
       576       577       578       579       580       581       582       583
       584       585       586       587       588       589       590       591
       592       594       595       596       597       598       599       600
       601       602       603       604       605       606       607       608
       609       610       612       613       614       615       616       617
       618       619       620       621       622       623       624       625
       626       627       628       629       630       631       632       633
       634       635       636       637       638       639       640       641
       642       644       645       646       647       648       649       650
       651       652       653       654       655       656       657       658
! ... 6 like lines cut
cmsel,s,_FRICSUZ
d,all,uz,0
nsel,all
nmod,183,,,,90.,90.,90.
nmod,184,,,,90.,90.,90.
nmod,185,,,,90.,90.,90.
nmod,186,,,,90.,90.,90.
nmod,187,,,,90.,90.,90.
nmod,593,,,,90.,90.,90.
nmod,611,,,,-90.,-90.,-90.
nmod,643,,,,-90.,-90.,-90.
nmod,668,,,,90.,-90.,90.
nmod,688,,,,90.,-90.,90.
nmod,697,,,,90.,90.,90.
nmod,699,,,,90.,90.,90.
nmod,700,,,,90.,90.,90.
nmod,701,,,,90.,90.,90.
nmod,707,,,,0.,-90.,0.
local,12,0,0.,0.,0.,0.,0.,0.
csys,0
et,2,154
eblock,10,,,26
(15i9)
      248        2        2        2       12       82       95       83       83      485      488       83      483
      249        2        2        2       12       96       90       89      100      507      503      504      521
      250        2        2        2       12       88       81      100       89      479      482      504      501
      251        2        2        2       12       81       98       96      100      481      520      521      482
      252        2        2        2       12       98       81       97       99      481      480      522      523
      253        2        2        2       12       84       99       97       85      491      522      494      490
      254        2        2        2       12       95       99       84       83      519      491      487      488
      255        2        2        2       12       95       93       98       99      515      516      523      519
      256        2        2        2       12       93       92       96       98      511      512      520      516
      257        2        2        2       12       91       90       96       92      506      507      512      509
      258        2        2        2       12       88       87       97       81      498      499      480      479
      259        2        2        2       12       87       86       85       97      496      493      494      499
      260        2        2        2       12       95       82       94       93      485      484      514      515
      261        2        2        2       12      198      197       94       82      711      518      484      486
      262        2        2        2       12      197      196       93       94      710      517      514      518
      263        2        2        2       12      196      195       92       93      709      513      511      517
      264        2        2        2       12      195      194       91       92      708      510      509      513
      265        2        2        2       12      194      193       90       91      707      508      506      510
      266        2        2        2       12      193      192       89       90      706      505      503      508
      267        2        2        2       12      192      191       88       89      705      502      501      505
! ... 7 like lines cut
esel,s,type,,2
keyop,2,2,1                ! Apply load in local coordinate system
keyop,2,7,1                ! Use original area so load is constant in large deformation
nsle
sfe,all,1,pres,1,0.
sfe,all,2,pres,1,382.014992048571
sfe,all,3,pres,1,0.
nsel,all
esel,all
!/solu
!antype,0                   ! static analysis
!esel,s,type,,2
!nsle
!sfe,all,1,pres,1,0.
!sfe,all,2,pres,1,382.014992048571
!sfe,all,3,pres,1,0.
!nsel,all
!esel,all
!solve
!/post1
!set, last
!etable,ET_SED,SEND,ELASTIC
!plesol, SEND, ELASTIC
/eof
